
 *******************************************************************************

         NASA-GLENN CHEMICAL EQUILIBRIUM PROGRAM CEA2, MAY 21, 2004
                   BY  BONNIE MCBRIDE AND SANFORD GORDON
      REFS: NASA RP-1311, PART I, 1994 AND NASA RP-1311, PART II, 1996

 *******************************************************************************



  problem
      tp    t,k=   1000.95300         p,bar=   3.94424610E-02 ,
  react
      fuel=H2 wt=   3.50000000        t,k=   1000.95300
      oxid=O2 wt=   17.5000000        t,k=   1000.95300
  output  transport
      plot cp cond vis pran gamma
  end

 OPTIONS: TP=T  HP=F  SP=F  TV=F  UV=F  SV=F  DETN=F  SHOCK=F  REFL=F  INCD=F
 RKT=F  FROZ=F  EQL=F  IONS=F  SIUNIT=T  DEBUGF=F  SHKDBG=F  DETDBG=F  TRNSPT=T

 T,K =  1000.9530

 TRACE= 0.00E+00  S/R= 0.000000E+00  H/R= 0.000000E+00  U/R= 0.000000E+00

 P,BAR =     0.039442

    REACTANT          WT.FRAC   (ENERGY/R),K   TEMP,K  DENSITY
        EXPLODED FORMULA
 F: H2               1.000000   0.249056E+04  1000.95  0.0000
          H  2.00000
 O: O2               1.000000   0.273503E+04  1000.95  0.0000
          O  2.00000

  SPECIES BEING CONSIDERED IN THIS SYSTEM
 (CONDENSED PHASE MAY HAVE NAME LISTED SEVERAL TIMES)
  LAST thermo.inp UPDATE:    9/09/04

  g 6/97  *H               g 4/02  HO2              tpis78  *H2            
  g 8/89  H2O              g 6/99  H2O2             g 5/97  *O             
  g 4/02  *OH              tpis89  *O2              g 8/01  O3             
  g11/99  H2O(cr)          g 8/01  H2O(L)           g 8/01  H2O(L)         

 SPECIES WITH TRANSPORT PROPERTIES

        PURE SPECIES

  H                 H2                H2O               O               
  OH                O2              

     BINARY INTERACTIONS

     H               H2              
     H               O               
     H2              H2O             
     H2              O2              
     H2O             O2              
     O               O2              


 O/F =   5.000000

                       EFFECTIVE FUEL     EFFECTIVE OXIDANT        MIXTURE
 ENTHALPY                  h(2)/R              h(1)/R               h0/R
 (KG-MOL)(K)/KG        0.12354714E+04      0.85472975E+02      0.27713938E+03

 KG-FORM.WT./KG             bi(2)               bi(1)               b0i
  *H                   0.99212255E+00      0.00000000E+00      0.16535376E+00
  *O                   0.00000000E+00      0.62502344E-01      0.52085287E-01

 POINT ITN      T            H           O 
   1   20    1000.953     -10.867     -35.886




               THERMODYNAMIC EQUILIBRIUM PROPERTIES AT ASSIGNED

                           TEMPERATURE AND PRESSURE

 CASE =                

             REACTANT                    WT FRACTION      ENERGY      TEMP
                                          (SEE NOTE)     KJ/KG-MOL      K  
 FUEL        H2                           1.0000000     20707.804   1000.953
 OXIDANT     O2                           1.0000000     22740.456   1000.953

 O/F=    5.00000  %FUEL= 16.666667  R,EQ.RATIO= 1.587337  PHI,EQ.RATIO= 1.587337

 THERMODYNAMIC PROPERTIES

 P, BAR           0.03944
 T, K             1000.95
 RHO, KG/CU M    5.7323-3
 H, KJ/KG        -10605.7
 U, KJ/KG        -11293.7
 G, KJ/KG        -30509.9
 S, KJ/(KG)(K)    19.8853

 M, (1/n)          12.095
 (dLV/dLP)t      -1.00000
 (dLV/dLT)p        1.0000
 Cp, KJ/(KG)(K)    3.0754
 GAMMAs            1.2879
 SON VEL,M/SEC      941.4

 TRANSPORT PROPERTIES (GASES ONLY)
   CONDUCTIVITY IN UNITS OF MILLIWATTS/(CM)(K)

 VISC,MILLIPOISE  0.37622

  WITH EQUILIBRIUM REACTIONS

 Cp, KJ/(KG)(K)    3.0754
 CONDUCTIVITY      1.8520
 PRANDTL NUMBER    0.6248

  WITH FROZEN REACTIONS

 Cp, KJ/(KG)(K)    3.0754
 CONDUCTIVITY      1.8520
 PRANDTL NUMBER    0.6248

 MOLE FRACTIONS

 *H2              0.37001
 H2O              0.62999

  * THERMODYNAMIC PROPERTIES FITTED TO 20000.K

    PRODUCTS WHICH WERE CONSIDERED BUT WHOSE MOLE FRACTIONS
    WERE LESS THAN 5.000000E-06 FOR ALL ASSIGNED CONDITIONS

 *H              HO2             H2O2            *O              *OH            
 *O2             O3              H2O(cr)         H2O(L)         

 NOTE. WEIGHT FRACTION OF FUEL IN TOTAL FUELS AND OF OXIDANT IN TOTAL OXIDANTS



